Mass spectrum: Gibberellin A1; LC-ESI-QQ; MS2; CE:30.0 eV; [M-H]-
Name: Gibberellin A1
Name: Gibberellin 1
Formula: C19H24O6
Exact mass: 348.15729
SMILES: OC(=O)C(C321)C([H])(C(C)54)C(CCC(O)5)(OC(=O)4)C([H])(CCC(O)(C(=C)C3)C2)1
InChI: InChI=1S/C19H24O6/c1-9-7-17-8-18(9,24)5-3-10(17)19-6-4-11(20)16(2,15(23)25-19)13(19)12(17)14(21)22/h10-13,20,24H,1,3-8H2,2H3,(H,21,22)/t10-,11+,12-,13-,16-,17+,18+,19-/m1/s1
Instrument: UPLC Waters, Quattro Ultima Pt Micromass
Instrument type: LC-ESI-QQ
Ms type: MS2
Ion mode: NEGATIVE
Collision energy: 30.0 eV
Ionization: ESI
Column name: ACQUITY UPLC BEH C18 2.1 by 50 mm (Waters, Milford, MA, USA)
Retention time: 4.71 min
Full scan fragment ion peak: 348
Ion type: [M-H]-
Precursor m/z: 347
Precursor type: [M-H]-
m/z	relative intensity
52.957	14
68.727	44
70.908	53
72.632	88
73.227	35
82.799	138
92.908	13
94.359	30
98.884	20
105.172	34
106.887	12
108.436	26
109.139	10
118.664	20
127.601	17
132.452	56
136.179	11
137.287	26
143.389	13
144.497	107
145.035	460
148.812	16
156.923	213
157.485	42
160.359	17
161.111	48
162.651	72
169.027	61
170.952	91
172.418	56
173.053	212
177.369	32
180.950	28
184.573	20
185.094	249
188.516	78
189.367	35
191.430	19
197.387	45
198.766	138
199.720	211
200.754	92
201.521	61
203.033	75
203.622	10
210.961	73
212.825	150
217.541	14
220.853	45
223.252	20
225.103	17
228.563	483
229.238	999
232.917	11
236.776	20
239.190	30
240.285	22
241.437	197
244.753	41
247.690	29
255.135	21
256.601	87
257.535	27
258.603	14
259.243	117
260.417	10
267.517	28
272.480	19
273.197	482
284.459	26
285.173	401
289.469	11
297.489	14
298.415	11
299.436	11
302.288	36
303.342	69
329.559	61
346.344	23
347.155	38
363.839	10
377.737	13
392.816	12
